<?xml version='1.0' encoding='UTF-8'?>
<tsResponse xmlns="http://tableau.com/api" xmlns:xsi="http://www.w3.org/2001/XMLSchema-instance" xsi:schemaLocation="http://tableau.com/api http://tableau.com/api/ts-api-2.3.xsd">
  <task>
    <runFlow>
      <schedule id="schedule-id" />
      <flow id="flow-id" />
    </runFlow>
  </task>
</tsResponse>
